xflr5 v6.61

 Calculated polar for: NACA 63-412 AIRFOIL

 3 1 Reynolds number ~ 1/CL         Mach number fixed         

 xtrf =   1.000 (top)        1.000 (bottom)
 Mach =   0.820     Re =     0.100 e 6     Ncrit =   9.000

  alpha     CL        CD       CDp       Cm    Top Xtr Bot Xtr   Cpmin    Chinge    XCp    
 ------- -------- --------- --------- -------- ------- ------- -------- --------- ---------
  -1.500   0.2033   0.01144   0.00606  -0.1204  0.6213  0.2944  -1.5239   0.0000   0.0000   0.0000   0.8465
  -1.000   0.2627   0.01329   0.00836  -0.1127  0.6211  0.5252  -1.0890   0.0000   0.0000   0.0000   0.6806
   0.000   0.3452   0.01792   0.01276  -0.0897  0.6055  0.6178  -1.0136   0.0000   0.0000   0.0000   0.5090
   0.500   0.3480   0.01979   0.01469  -0.0757  0.5871  0.6378  -1.0084   0.0000   0.0000   0.0000   0.4657
   1.000   0.3610   0.02211   0.01697  -0.0652  0.5679  0.6563  -1.0093   0.0000   0.0000   0.0000   0.4279


