xflr5 v6.61

 Calculated polar for: NACA 63-412 AIRFOIL

 3 1 Reynolds number ~ 1/CL         Mach number fixed         

 xtrf =   1.000 (top)        1.000 (bottom)
 Mach =   0.820     Re =     1.000 e 6     Ncrit =   9.000

  alpha     CL        CD       CDp       Cm    Top Xtr Bot Xtr   Cpmin    Chinge    XCp    
 ------- -------- --------- --------- -------- ------- ------- -------- --------- ---------
  -1.500   0.2811   0.00736   0.00267  -0.1275  0.5265  0.0349  -1.4170   0.0000   0.0000   0.0000   0.7057
  -1.000   0.3896   0.00707   0.00243  -0.1270  0.5289  0.1743  -1.0948   0.0000   0.0000   0.0000   0.5765
  -0.500   0.4981   0.00651   0.00234  -0.1280  0.5273  0.4373  -1.1703   0.0000   0.0000   0.0000   0.5064
   0.000   0.6000   0.00697   0.00280  -0.1256  0.5206  0.5061  -1.2437   0.0000   0.0000   0.0000   0.4581
   0.500   0.6967   0.00757   0.00342  -0.1221  0.5132  0.5460  -1.3256   0.0000   0.0000   0.0000   0.4235
   1.000   0.7841   0.00829   0.00412  -0.1169  0.4987  0.5672  -1.4030   0.0000   0.0000   0.0000   0.3968
   1.500   0.8663   0.00884   0.00470  -0.1100  0.4783  0.5898  -1.4881   0.0000   0.0000   0.0000   0.3740
   2.000   0.9264   0.00954   0.00541  -0.0991  0.4634  0.6007  -1.5633   0.0000   0.0000   0.0000   0.3535
   2.500   0.9807   0.01052   0.00655  -0.0876  0.4450  0.6264  -1.6499   0.0000   0.0000   0.0000   0.3353
   3.000   1.0388   0.01181   0.00805  -0.0766  0.4256  0.6449  -1.7863   0.0000   0.0000   0.0000   0.3191
   3.500   1.0898   0.01346   0.00996  -0.0644  0.4055  0.6682  -2.1990   0.0000   0.0000   0.0000   0.3038


