xflr5 v6.61

 Calculated polar for: SD6060-104-88

 1 1 Reynolds number fixed          Mach number fixed         

 xtrf =   1.000 (top)        1.000 (bottom)
 Mach =   0.065     Re =     0.346 e 6     Ncrit =   9.000

  alpha     CL        CD       CDp       Cm    Top Xtr Bot Xtr   Cpmin    Chinge    XCp    
 ------- -------- --------- --------- -------- ------- ------- -------- --------- ---------
  -5.000  -0.3133   0.01570   0.00935  -0.0479  0.9306  0.0134  -3.1492   0.0000   0.0000   0.0000   0.0914
  -4.900  -0.3038   0.01517   0.00874  -0.0474  0.9275  0.0134  -3.1145   0.0000   0.0000   0.0000   0.0883
  -4.800  -0.2949   0.01471   0.00821  -0.0468  0.9240  0.0134  -3.0750   0.0000   0.0000   0.0000   0.0855
  -4.700  -0.2865   0.01429   0.00775  -0.0461  0.9197  0.0135  -3.0325   0.0000   0.0000   0.0000   0.0831
  -4.600  -0.2780   0.01391   0.00731  -0.0455  0.9156  0.0137  -2.9865   0.0000   0.0000   0.0000   0.0804
  -4.500  -0.2694   0.01355   0.00691  -0.0449  0.9117  0.0140  -2.9381   0.0000   0.0000   0.0000   0.0775
  -4.400  -0.2607   0.01323   0.00654  -0.0442  0.9082  0.0143  -2.8883   0.0000   0.0000   0.0000   0.0744
  -4.300  -0.2519   0.01294   0.00620  -0.0436  0.9050  0.0149  -2.8373   0.0000   0.0000   0.0000   0.0709
  -4.200  -0.2428   0.01268   0.00590  -0.0431  0.9018  0.0156  -2.7861   0.0000   0.0000   0.0000   0.0666
  -4.100  -0.2335   0.01243   0.00561  -0.0427  0.8979  0.0166  -2.7347   0.0000   0.0000   0.0000   0.0613
  -4.000  -0.2241   0.01222   0.00536  -0.0422  0.8940  0.0178  -2.6787   0.0000   0.0000   0.0000   0.0556
  -3.900  -0.2146   0.01205   0.00510  -0.0418  0.8903  0.0186  -2.5999   0.0000   0.0000   0.0000   0.0491
  -3.800  -0.2057   0.01173   0.00471  -0.0412  0.8868  0.0208  -2.5651   0.0000   0.0000   0.0000   0.0436
  -3.700  -0.1970   0.01137   0.00433  -0.0405  0.8835  0.0274  -2.5388   0.0000   0.0000   0.0000   0.0382
  -3.600  -0.1890   0.01092   0.00404  -0.0398  0.8804  0.0605  -2.5080   0.0000   0.0000   0.0000   0.0331
  -3.500  -0.1804   0.01057   0.00390  -0.0395  0.8766  0.1013  -2.4265   0.0000   0.0000   0.0000   0.0248
  -3.400  -0.1713   0.01031   0.00378  -0.0392  0.8727  0.1355  -2.3319   0.0000   0.0000   0.0000   0.0147
  -3.300  -0.1624   0.01004   0.00367  -0.0389  0.8690  0.1741  -2.2354   0.0000   0.0000   0.0000   0.0040
  -3.200  -0.1534   0.00979   0.00356  -0.0386  0.8655  0.2125  -2.1373   0.0000   0.0000   0.0000  -0.0081
  -3.100  -0.1444   0.00955   0.00345  -0.0382  0.8623  0.2513  -2.0388   0.0000   0.0000   0.0000  -0.0215
  -3.000  -0.1357   0.00929   0.00334  -0.0378  0.8592  0.2991  -1.9422   0.0000   0.0000   0.0000  -0.0357
  -2.900  -0.1280   0.00891   0.00325  -0.0374  0.8560  0.3734  -1.8512   0.0000   0.0000   0.0000  -0.0486
  -2.800  -0.1210   0.00846   0.00318  -0.0368  0.8521  0.4656  -1.7641   0.0000   0.0000   0.0000  -0.0607
  -2.700  -0.1142   0.00808   0.00314  -0.0360  0.8482  0.5523  -1.6777   0.0000   0.0000   0.0000  -0.0723
  -2.600  -0.1066   0.00782   0.00312  -0.0352  0.8445  0.6161  -1.5882   0.0000   0.0000   0.0000  -0.0876
  -2.500  -0.0978   0.00768   0.00310  -0.0346  0.8412  0.6556  -1.4945   0.0000   0.0000   0.0000  -0.1112
  -2.400  -0.0885   0.00759   0.00308  -0.0340  0.8381  0.6867  -1.4001   0.0000   0.0000   0.0000  -0.1422
  -2.300  -0.0791   0.00753   0.00306  -0.0335  0.8353  0.7150  -1.3067   0.0000   0.0000   0.0000  -0.1812
  -2.200  -0.0695   0.00748   0.00307  -0.0330  0.8320  0.7396  -1.2158   0.0000   0.0000   0.0000  -0.2330
  -2.100  -0.0598   0.00744   0.00305  -0.0325  0.8284  0.7601  -1.1388   0.0000   0.0000   0.0000  -0.3036
  -2.000  -0.0499   0.00740   0.00305  -0.0321  0.8247  0.7758  -1.0696   0.0000   0.0000   0.0000  -0.4036
  -1.900  -0.0398   0.00738   0.00302  -0.0317  0.8212  0.7890  -1.0007   0.0000   0.0000   0.0000  -0.5598
  -1.800  -0.0299   0.00737   0.00301  -0.0312  0.8179  0.8025  -0.9336   0.0000   0.0000   0.0000  -0.8103
  -1.700  -0.0200   0.00736   0.00300  -0.0307  0.8149  0.8147  -0.8674   0.0000   0.0000   0.0000  -1.3096
  -1.600  -0.0101   0.00737   0.00299  -0.0303  0.8120  0.8266  -0.8024   0.0000   0.0000   0.0000  -2.7809
  -1.500  -0.0001   0.00738   0.00300  -0.0299  0.8087  0.8369  -0.7382   0.0000   0.0000   0.0000  -373.9880
  -1.400   0.0099   0.00738   0.00301  -0.0294  0.8051  0.8468  -0.6754   0.0000   0.0000   0.0000   3.2573
  -1.300   0.0200   0.00739   0.00300  -0.0291  0.8014  0.8563  -0.6136   0.0000   0.0000   0.0000   1.7225
  -1.200   0.0300   0.00739   0.00301  -0.0286  0.7979  0.8638  -0.5527   0.0000   0.0000   0.0000   1.2127
  -1.100   0.0399   0.00741   0.00300  -0.0281  0.7947  0.8723  -0.4936   0.0000   0.0000   0.0000   0.9617
  -1.000   0.0498   0.00743   0.00298  -0.0277  0.7916  0.8799  -0.4559   0.0000   0.0000   0.0000   0.8105
  -0.900   0.0601   0.00746   0.00299  -0.0273  0.7887  0.8863  -0.4277   0.0000   0.0000   0.0000   0.7068
  -0.800   0.0700   0.00748   0.00301  -0.0268  0.7853  0.8937  -0.4002   0.0000   0.0000   0.0000   0.6353
  -0.700   0.0795   0.00750   0.00301  -0.0264  0.7815  0.9015  -0.4025   0.0000   0.0000   0.0000   0.5833
  -0.600   0.0904   0.00751   0.00300  -0.0261  0.7779  0.9069  -0.4101   0.0000   0.0000   0.0000   0.5395
  -0.500   0.1009   0.00754   0.00301  -0.0257  0.7745  0.9129  -0.4176   0.0000   0.0000   0.0000   0.5054
  -0.400   0.1109   0.00757   0.00301  -0.0253  0.7711  0.9196  -0.4252   0.0000   0.0000   0.0000   0.4781
  -0.300   0.1207   0.00759   0.00299  -0.0248  0.7680  0.9256  -0.4328   0.0000   0.0000   0.0000   0.4555
  -0.200   0.1334   0.00764   0.00300  -0.0249  0.7649  0.9297  -0.4418   0.0000   0.0000   0.0000   0.4364
  -0.100   0.1461   0.00766   0.00303  -0.0251  0.7614  0.9344  -0.4511   0.0000   0.0000   0.0000   0.4211
   0.000   0.1584   0.00769   0.00304  -0.0252  0.7576  0.9396  -0.4605   0.0000   0.0000   0.0000   0.4082
   0.100   0.1690   0.00772   0.00305  -0.0249  0.7538  0.9454  -0.4690   0.0000   0.0000   0.0000   0.3966
   0.200   0.1823   0.00774   0.00305  -0.0253  0.7502  0.9494  -0.4793   0.0000   0.0000   0.0000   0.3874
   0.300   0.1987   0.00777   0.00304  -0.0262  0.7469  0.9520  -0.4917   0.0000   0.0000   0.0000   0.3806
   0.400   0.2152   0.00781   0.00304  -0.0272  0.7436  0.9545  -0.5042   0.0000   0.0000   0.0000   0.3751
   0.500   0.2316   0.00785   0.00305  -0.0283  0.7402  0.9570  -0.5170   0.0000   0.0000   0.0000   0.3706
   0.600   0.2476   0.00787   0.00306  -0.0293  0.7363  0.9597  -0.5300   0.0000   0.0000   0.0000   0.3666
   0.700   0.2633   0.00788   0.00307  -0.0302  0.7323  0.9623  -0.5430   0.0000   0.0000   0.0000   0.3630
   0.800   0.2780   0.00790   0.00307  -0.0309  0.7285  0.9651  -0.5561   0.0000   0.0000   0.0000   0.3594
   0.900   0.2905   0.00793   0.00306  -0.0311  0.7248  0.9685  -0.5683   0.0000   0.0000   0.0000   0.3553
   1.000   0.3055   0.00795   0.00304  -0.0319  0.7213  0.9706  -0.5821   0.0000   0.0000   0.0000   0.3525
   1.100   0.3230   0.00797   0.00302  -0.0333  0.7176  0.9718  -0.5982   0.0000   0.0000   0.0000   0.3510
   1.200   0.3403   0.00796   0.00302  -0.0346  0.7134  0.9731  -0.6147   0.0000   0.0000   0.0000   0.3496
   1.300   0.3571   0.00795   0.00301  -0.0358  0.7090  0.9745  -0.6311   0.0000   0.0000   0.0000   0.3482
   1.400   0.3734   0.00795   0.00299  -0.0369  0.7048  0.9761  -0.6481   0.0000   0.0000   0.0000   0.3468
   1.500   0.3892   0.00796   0.00296  -0.0379  0.7008  0.9779  -0.6656   0.0000   0.0000   0.0000   0.3452
   1.600   0.4045   0.00798   0.00293  -0.0388  0.6968  0.9797  -0.6828   0.0000   0.0000   0.0000   0.3437
   1.700   0.4197   0.00798   0.00294  -0.0397  0.6925  0.9818  -0.7000   0.0000   0.0000   0.0000   0.3423
   1.800   0.4345   0.00797   0.00294  -0.0406  0.6878  0.9840  -0.7184   0.0000   0.0000   0.0000   0.3409
   1.900   0.4488   0.00798   0.00295  -0.0413  0.6831  0.9862  -0.7371   0.0000   0.0000   0.0000   0.3395
   2.000   0.4627   0.00799   0.00294  -0.0419  0.6786  0.9883  -0.7555   0.0000   0.0000   0.0000   0.3379
   2.100   0.4762   0.00803   0.00294  -0.0424  0.6744  0.9902  -0.7738   0.0000   0.0000   0.0000   0.3364
   2.200   0.4925   0.00801   0.00292  -0.0436  0.6695  0.9916  -0.7943   0.0000   0.0000   0.0000   0.3357
   2.300   0.5083   0.00799   0.00291  -0.0446  0.6642  0.9933  -0.8168   0.0000   0.0000   0.0000   0.3350
   2.400   0.5238   0.00798   0.00289  -0.0456  0.6590  0.9950  -0.8397   0.0000   0.0000   0.0000   0.3343
   2.500   0.5389   0.00799   0.00286  -0.0465  0.6539  0.9968  -0.8624   0.0000   0.0000   0.0000   0.3334
   2.600   0.5541   0.00800   0.00285  -0.0474  0.6489  0.9985  -0.8852   0.0000   0.0000   0.0000   0.3326
   2.700   0.5693   0.00798   0.00286  -0.0484  0.6433  1.0000  -0.9082   0.0000   0.0000   0.0000   0.3320
   2.800   0.5777   0.00798   0.00286  -0.0479  0.6380  1.0000  -0.9249   0.0000   0.0000   0.0000   0.3298
   2.900   0.5860   0.00800   0.00285  -0.0475  0.6329  1.0000  -0.9436   0.0000   0.0000   0.0000   0.3277
   3.000   0.5943   0.00803   0.00284  -0.0469  0.6281  1.0000  -0.9634   0.0000   0.0000   0.0000   0.3257
   3.100   0.6029   0.00802   0.00285  -0.0465  0.6229  1.0000  -0.9862   0.0000   0.0000   0.0000   0.3238
   3.200   0.6114   0.00803   0.00287  -0.0461  0.6171  1.0000  -1.0105   0.0000   0.0000   0.0000   0.3219
   3.300   0.6198   0.00804   0.00287  -0.0456  0.6114  1.0000  -1.0349   0.0000   0.0000   0.0000   0.3200
   3.400   0.6281   0.00808   0.00292  -0.0450  0.6061  1.0000  -1.0594   0.0000   0.0000   0.0000   0.3181
   3.500   0.6366   0.00810   0.00295  -0.0446  0.6006  1.0000  -1.0842   0.0000   0.0000   0.0000   0.3163
   3.600   0.6451   0.00811   0.00298  -0.0441  0.5944  1.0000  -1.1091   0.0000   0.0000   0.0000   0.3146
   3.700   0.6535   0.00815   0.00300  -0.0436  0.5881  1.0000  -1.1340   0.0000   0.0000   0.0000   0.3129
   3.900   0.6703   0.00822   0.00305  -0.0426  0.5751  1.0000  -1.1913   0.0000   0.0000   0.0000   0.3095
   4.000   0.6787   0.00825   0.00309  -0.0421  0.5680  1.0000  -1.2405   0.0000   0.0000   0.0000   0.3079
   4.100   0.6870   0.00830   0.00311  -0.0416  0.5613  1.0000  -1.2898   0.0000   0.0000   0.0000   0.3063
   4.200   0.6955   0.00834   0.00316  -0.0411  0.5549  1.0000  -1.3403   0.0000   0.0000   0.0000   0.3048
   4.300   0.7040   0.00838   0.00320  -0.0406  0.5469  1.0000  -1.3914   0.0000   0.0000   0.0000   0.3033
   4.400   0.7122   0.00845   0.00324  -0.0400  0.5387  1.0000  -1.4420   0.0000   0.0000   0.0000   0.3018
   4.500   0.7206   0.00850   0.00329  -0.0395  0.5298  1.0000  -1.4939   0.0000   0.0000   0.0000   0.3003
   4.600   0.7288   0.00856   0.00333  -0.0390  0.5191  1.0000  -1.5456   0.0000   0.0000   0.0000   0.2989
   4.700   0.7368   0.00864   0.00337  -0.0384  0.5072  1.0000  -1.5973   0.0000   0.0000   0.0000   0.2974
   4.800   0.7443   0.00875   0.00342  -0.0377  0.4925  1.0000  -1.6486   0.0000   0.0000   0.0000   0.2959
   4.900   0.7521   0.00885   0.00347  -0.0371  0.4761  1.0000  -1.7065   0.0000   0.0000   0.0000   0.2945
   5.000   0.7595   0.00899   0.00354  -0.0365  0.4582  1.0000  -1.7688   0.0000   0.0000   0.0000   0.2930
   5.100   0.7667   0.00914   0.00364  -0.0358  0.4395  1.0000  -1.8250   0.0000   0.0000   0.0000   0.2915
   5.200   0.7737   0.00932   0.00373  -0.0351  0.4209  1.0000  -1.8867   0.0000   0.0000   0.0000   0.2901
   5.300   0.7812   0.00948   0.00383  -0.0344  0.4027  1.0000  -1.9504   0.0000   0.0000   0.0000   0.2888
   5.400   0.7889   0.00964   0.00393  -0.0339  0.3866  1.0000  -2.0159   0.0000   0.0000   0.0000   0.2875
   5.500   0.7965   0.00981   0.00404  -0.0333  0.3719  1.0000  -2.0816   0.0000   0.0000   0.0000   0.2863
   5.600   0.8039   0.01000   0.00416  -0.0327  0.3559  1.0000  -2.1473   0.0000   0.0000   0.0000   0.2850
   5.700   0.8116   0.01018   0.00428  -0.0321  0.3399  1.0000  -2.2149   0.0000   0.0000   0.0000   0.2839
   5.800   0.8191   0.01038   0.00442  -0.0315  0.3238  1.0000  -2.2820   0.0000   0.0000   0.0000   0.2827
   5.900   0.8263   0.01060   0.00456  -0.0309  0.3073  1.0000  -2.3487   0.0000   0.0000   0.0000   0.2815
   6.000   0.8340   0.01080   0.00470  -0.0304  0.2907  1.0000  -2.4178   0.0000   0.0000   0.0000   0.2805
   6.100   0.8419   0.01100   0.00485  -0.0299  0.2756  1.0000  -2.4878   0.0000   0.0000   0.0000   0.2794
   6.200   0.8494   0.01123   0.00501  -0.0294  0.2612  1.0000  -2.5572   0.0000   0.0000   0.0000   0.2784
   6.300   0.8576   0.01142   0.00516  -0.0289  0.2474  1.0000  -2.6293   0.0000   0.0000   0.0000   0.2774
   6.400   0.8655   0.01163   0.00532  -0.0284  0.2345  1.0000  -2.7010   0.0000   0.0000   0.0000   0.2765
   6.600   0.8810   0.01209   0.00566  -0.0275  0.2041  1.0000  -2.8472   0.0000   0.0000   0.0000   0.2746
   6.700   0.8888   0.01233   0.00584  -0.0270  0.1909  1.0000  -2.9364   0.0000   0.0000   0.0000   0.2737
   6.800   0.8964   0.01259   0.00602  -0.0265  0.1767  1.0000  -3.0359   0.0000   0.0000   0.0000   0.2728
   6.900   0.9043   0.01282   0.00621  -0.0261  0.1634  1.0000  -3.1486   0.0000   0.0000   0.0000   0.2719
   7.000   0.9116   0.01310   0.00646  -0.0255  0.1489  1.0000  -3.2643   0.0000   0.0000   0.0000   0.2710
   7.100   0.9189   0.01339   0.00668  -0.0250  0.1336  1.0000  -3.3772   0.0000   0.0000   0.0000   0.2701
   7.200   0.9263   0.01367   0.00690  -0.0245  0.1185  1.0000  -3.4897   0.0000   0.0000   0.0000   0.2692
   7.300   0.9330   0.01401   0.00714  -0.0239  0.1019  1.0000  -3.5982   0.0000   0.0000   0.0000   0.2683
   7.400   0.9390   0.01441   0.00743  -0.0233  0.0827  1.0000  -3.7007   0.0000   0.0000   0.0000   0.2673
   7.500   0.9439   0.01491   0.00778  -0.0224  0.0606  1.0000  -3.7932   0.0000   0.0000   0.0000   0.2662
   7.600   0.9488   0.01543   0.00818  -0.0215  0.0446  1.0000  -3.8804   0.0000   0.0000   0.0000   0.2650
   7.700   0.9544   0.01587   0.00856  -0.0207  0.0375  1.0000  -3.9726   0.0000   0.0000   0.0000   0.2639
   7.800   0.9592   0.01639   0.00911  -0.0197  0.0325  1.0000  -4.0475   0.0000   0.0000   0.0000   0.2626
   7.900   0.9660   0.01672   0.00948  -0.0190  0.0312  1.0000  -4.1492   0.0000   0.0000   0.0000   0.2616
   8.000   0.9735   0.01697   0.00978  -0.0184  0.0304  1.0000  -4.2630   0.0000   0.0000   0.0000   0.2608
   8.100   0.9806   0.01725   0.01011  -0.0178  0.0297  1.0000  -4.3738   0.0000   0.0000   0.0000   0.2599
   8.200   0.9874   0.01755   0.01045  -0.0172  0.0288  1.0000  -4.4822   0.0000   0.0000   0.0000   0.2590
   8.300   0.9939   0.01787   0.01082  -0.0165  0.0280  1.0000  -4.5888   0.0000   0.0000   0.0000   0.2581
   8.400   1.0002   0.01821   0.01119  -0.0158  0.0273  1.0000  -4.6933   0.0000   0.0000   0.0000   0.2571
   8.500   1.0061   0.01855   0.01159  -0.0150  0.0265  1.0000  -4.7958   0.0000   0.0000   0.0000   0.2562
   8.600   1.0117   0.01892   0.01200  -0.0142  0.0258  1.0000  -4.8959   0.0000   0.0000   0.0000   0.2552
   8.700   1.0171   0.01931   0.01242  -0.0133  0.0252  1.0000  -4.9942   0.0000   0.0000   0.0000   0.2541
   8.800   1.0221   0.01971   0.01287  -0.0124  0.0246  1.0000  -5.0901   0.0000   0.0000   0.0000   0.2531
   8.900   1.0269   0.02012   0.01332  -0.0115  0.0240  1.0000  -5.1846   0.0000   0.0000   0.0000   0.2520
   9.000   1.0315   0.02053   0.01376  -0.0106  0.0234  1.0000  -5.2805   0.0000   0.0000   0.0000   0.2509
   9.100   1.0355   0.02095   0.01421  -0.0096  0.0228  1.0000  -5.3740   0.0000   0.0000   0.0000   0.2498
   9.200   1.0386   0.02139   0.01468  -0.0085  0.0221  1.0000  -5.4600   0.0000   0.0000   0.0000   0.2486
   9.300   1.0406   0.02190   0.01522  -0.0072  0.0214  1.0000  -5.5358   0.0000   0.0000   0.0000   0.2472
   9.400   1.0419   0.02251   0.01587  -0.0058  0.0207  1.0000  -5.6003   0.0000   0.0000   0.0000   0.2457
   9.500   1.0431   0.02320   0.01662  -0.0045  0.0202  1.0000  -5.6583   0.0000   0.0000   0.0000   0.2443
   9.600   1.0447   0.02396   0.01745  -0.0032  0.0198  1.0000  -5.7135   0.0000   0.0000   0.0000   0.2430
   9.700   1.0464   0.02491   0.01848  -0.0020  0.0193  1.0000  -5.7591   0.0000   0.0000   0.0000   0.2417
   9.800   1.0484   0.02631   0.02000  -0.0010  0.0188  1.0000  -5.7831   0.0000   0.0000   0.0000   0.2406
   9.900   1.0528   0.02701   0.02075  -0.0002  0.0184  1.0000  -5.8647   0.0000   0.0000   0.0000   0.2398
  10.000   1.0581   0.02707   0.02083   0.0005  0.0181  1.0000  -5.9900   0.0000   0.0000   0.0000   0.2389
  10.100   1.0635   0.02709   0.02093   0.0011  0.0177  1.0000  -6.1166   0.0000   0.0000   0.0000   0.2382
  10.200   1.0686   0.02724   0.02112   0.0018  0.0171  1.0000  -6.2387   0.0000   0.0000   0.0000   0.2375
  10.300   1.0734   0.02749   0.02139   0.0024  0.0165  1.0000  -6.3556   0.0000   0.0000   0.0000   0.2367
  10.400   1.0778   0.02781   0.02175   0.0031  0.0159  1.0000  -6.4662   0.0000   0.0000   0.0000   0.2360
  10.500   1.0818   0.02822   0.02219   0.0038  0.0153  1.0000  -6.5674   0.0000   0.0000   0.0000   0.2352
  10.600   1.0853   0.02874   0.02276   0.0045  0.0148  1.0000  -6.6536   0.0000   0.0000   0.0000   0.2344
  10.700   1.0885   0.02929   0.02336   0.0053  0.0143  1.0000  -6.7358   0.0000   0.0000   0.0000   0.2336
  10.800   1.0915   0.02984   0.02395   0.0060  0.0139  1.0000  -6.8177   0.0000   0.0000   0.0000   0.2328
  10.900   1.0942   0.03040   0.02455   0.0067  0.0134  1.0000  -6.8996   0.0000   0.0000   0.0000   0.2320
  11.000   1.0966   0.03098   0.02517   0.0074  0.0130  1.0000  -6.9804   0.0000   0.0000   0.0000   0.2312
  11.100   1.0986   0.03160   0.02582   0.0081  0.0126  1.0000  -7.0582   0.0000   0.0000   0.0000   0.2305
  11.200   1.1001   0.03231   0.02656   0.0088  0.0122  1.0000  -7.1279   0.0000   0.0000   0.0000   0.2297
  11.300   1.1008   0.03315   0.02745   0.0095  0.0118  1.0000  -7.1812   0.0000   0.0000   0.0000   0.2289
  11.400   1.1002   0.03427   0.02864   0.0103  0.0114  1.0000  -7.2035   0.0000   0.0000   0.0000   0.2280
  11.500   1.0975   0.03587   0.03035   0.0112  0.0109  1.0000  -7.1706   0.0000   0.0000   0.0000   0.2270
  11.600   1.0912   0.03819   0.03284   0.0123  0.0105  1.0000  -7.0598   0.0000   0.0000   0.0000   0.2259
  11.700   1.0815   0.04098   0.03584   0.0133  0.0102  1.0000  -6.9019   0.0000   0.0000   0.0000   0.2247
  11.800   1.0732   0.04322   0.03823   0.0142  0.0100  1.0000  -6.8004   0.0000   0.0000   0.0000   0.2237
  11.900   1.0755   0.04348   0.03854   0.0146  0.0099  1.0000  -6.8967   0.0000   0.0000   0.0000   0.2232
  12.000   1.0766   0.04405   0.03916   0.0149  0.0098  1.0000  -6.9656   0.0000   0.0000   0.0000   0.2227
  12.100   1.0768   0.04483   0.04000   0.0153  0.0096  1.0000  -7.0158   0.0000   0.0000   0.0000   0.2222
  12.200   1.0762   0.04577   0.04101   0.0156  0.0095  1.0000  -7.0510   0.0000   0.0000   0.0000   0.2217
  12.300   1.0748   0.04685   0.04216   0.0159  0.0094  1.0000  -7.0752   0.0000   0.0000   0.0000   0.2213
  12.400   1.0728   0.04804   0.04343   0.0161  0.0093  1.0000  -7.0900   0.0000   0.0000   0.0000   0.2209
  12.500   1.0702   0.04934   0.04481   0.0162  0.0092  1.0000  -7.0970   0.0000   0.0000   0.0000   0.2205
  12.600   1.0670   0.05073   0.04629   0.0163  0.0091  1.0000  -7.0979   0.0000   0.0000   0.0000   0.2202
  12.700   1.0632   0.05221   0.04785   0.0163  0.0091  1.0000  -7.0931   0.0000   0.0000   0.0000   0.2200
  12.800   1.0591   0.05378   0.04949   0.0163  0.0090  1.0000  -7.0839   0.0000   0.0000   0.0000   0.2198
  12.900   1.0545   0.05543   0.05123   0.0161  0.0089  1.0000  -7.0705   0.0000   0.0000   0.0000   0.2197
  13.000   1.0496   0.05717   0.05305   0.0158  0.0089  1.0000  -7.0533   0.0000   0.0000   0.0000   0.2197
  13.100   1.0444   0.05900   0.05495   0.0154  0.0089  1.0000  -7.0328   0.0000   0.0000   0.0000   0.2199
  13.200   1.0388   0.06091   0.05695   0.0149  0.0088  1.0000  -7.0088   0.0000   0.0000   0.0000   0.2201
  13.300   1.0329   0.06292   0.05903   0.0143  0.0088  1.0000  -6.9815   0.0000   0.0000   0.0000   0.2204
  13.400   1.0268   0.06500   0.06119   0.0136  0.0088  1.0000  -6.9512   0.0000   0.0000   0.0000   0.2209
  13.500   1.0204   0.06717   0.06344   0.0127  0.0088  1.0000  -6.9177   0.0000   0.0000   0.0000   0.2214
  13.600   1.0138   0.06945   0.06580   0.0118  0.0088  1.0000  -6.8810   0.0000   0.0000   0.0000   0.2221
  13.700   1.0070   0.07184   0.06826   0.0107  0.0088  1.0000  -6.8412   0.0000   0.0000   0.0000   0.2230
  13.800   1.0000   0.07434   0.07083   0.0094  0.0088  1.0000  -6.7981   0.0000   0.0000   0.0000   0.2239
  13.900   0.9929   0.07696   0.07351   0.0081  0.0089  1.0000  -6.7516   0.0000   0.0000   0.0000   0.2251
  14.000   0.9856   0.07970   0.07633   0.0066  0.0089  1.0000  -6.7013   0.0000   0.0000   0.0000   0.2264
  14.100   0.9782   0.08258   0.07927   0.0049  0.0089  1.0000  -6.6469   0.0000   0.0000   0.0000   0.2278
  14.200   0.9706   0.08558   0.08234   0.0032  0.0089  1.0000  -6.5881   0.0000   0.0000   0.0000   0.2295
  14.300   0.9628   0.08871   0.08554   0.0013  0.0090  1.0000  -6.5246   0.0000   0.0000   0.0000   0.2313
  14.400   0.9549   0.09201   0.08889  -0.0008  0.0090  1.0000  -6.4555   0.0000   0.0000   0.0000   0.2332
  14.500   0.9467   0.09547   0.09241  -0.0029  0.0091  1.0000  -6.3798   0.0000   0.0000   0.0000   0.2354
  14.600   0.9384   0.09911   0.09612  -0.0052  0.0091  1.0000  -6.2965   0.0000   0.0000   0.0000   0.2378
  14.700   0.9297   0.10297   0.10003  -0.0077  0.0092  1.0000  -6.2035   0.0000   0.0000   0.0000   0.2403
  14.800   0.9206   0.10706   0.10417  -0.0102  0.0093  1.0000  -6.0984   0.0000   0.0000   0.0000   0.2431
  14.900   0.9108   0.11145   0.10862  -0.0130  0.0094  1.0000  -5.9760   0.0000   0.0000   0.0000   0.2462
  15.000   0.8999   0.11627   0.11349  -0.0159  0.0095  1.0000  -5.8264   0.0000   0.0000   0.0000   0.2496
  15.100   0.8861   0.12198   0.11924  -0.0193  0.0097  1.0000  -5.6169   0.0000   0.0000   0.0000   0.2537
  15.400   0.5700   0.11281   0.11086  -0.0389  0.0226  1.0000  -2.3270   0.0000   0.0000   0.0000   0.3082
  15.500   0.5692   0.11591   0.11395  -0.0404  0.0228  1.0000  -2.2273   0.0000   0.0000   0.0000   0.3110
  15.900   0.8432   0.15324   0.15066  -0.0359  0.0106  1.0000  -4.6722   0.0000   0.0000   0.0000   0.2744
  16.000   0.8397   0.15708   0.15451  -0.0376  0.0107  1.0000  -4.5303   0.0000   0.0000   0.0000   0.2767
  16.100   0.8346   0.16192   0.15935  -0.0396  0.0110  1.0000  -4.2892   0.0000   0.0000   0.0000   0.2794
  16.200   0.8028   0.17950   0.17677  -0.0457  0.0150  1.0000  -2.9456   0.0000   0.0000   0.0000   0.2901
  16.300   0.8020   0.18231   0.17958  -0.0469  0.0157  1.0000  -2.8469   0.0000   0.0000   0.0000   0.2915
  16.400   0.8011   0.18495   0.18222  -0.0480  0.0167  1.0000  -2.7647   0.0000   0.0000   0.0000   0.2929
  16.700   0.5814   0.14565   0.14364  -0.0539  0.0263  1.0000  -1.5018   0.0000   0.0000   0.0000   0.3324
  16.800   0.5835   0.14755   0.14553  -0.0548  0.0255  1.0000  -1.4782   0.0000   0.0000   0.0000   0.3335
  16.900   0.5859   0.14937   0.14736  -0.0557  0.0248  1.0000  -1.4611   0.0000   0.0000   0.0000   0.3345
  17.000   0.5884   0.15114   0.14913  -0.0565  0.0241  1.0000  -1.4495   0.0000   0.0000   0.0000   0.3354


