xflr5 v6.61

 Calculated polar for: SD6060-104-88

 1 1 Reynolds number fixed          Mach number fixed         

 xtrf =   1.000 (top)        1.000 (bottom)
 Mach =   0.000     Re =     0.231 e 6     Ncrit =   9.000

  alpha     CL        CD       CDp       Cm    Top Xtr Bot Xtr   Cpmin    Chinge    XCp    
 ------- -------- --------- --------- -------- ------- ------- -------- --------- ---------
  -5.000  -0.3334   0.02020   0.01348  -0.0462  0.9560  0.0191  -2.9235   0.0000   0.0000   0.0000   0.1059
  -4.900  -0.3192   0.01928   0.01244  -0.0468  0.9543  0.0191  -2.8986   0.0000   0.0000   0.0000   0.0980
  -4.800  -0.3046   0.01845   0.01150  -0.0473  0.9527  0.0192  -2.8682   0.0000   0.0000   0.0000   0.0890
  -4.700  -0.2900   0.01770   0.01067  -0.0479  0.9511  0.0193  -2.8331   0.0000   0.0000   0.0000   0.0790
  -4.600  -0.2753   0.01704   0.00994  -0.0485  0.9496  0.0197  -2.7931   0.0000   0.0000   0.0000   0.0679
  -4.500  -0.2607   0.01650   0.00933  -0.0491  0.9480  0.0201  -2.7466   0.0000   0.0000   0.0000   0.0557
  -4.400  -0.2532   0.01619   0.00898  -0.0483  0.9431  0.0205  -2.7070   0.0000   0.0000   0.0000   0.0532
  -4.300  -0.2438   0.01558   0.00834  -0.0479  0.9392  0.0213  -2.6893   0.0000   0.0000   0.0000   0.0476
  -4.200  -0.2351   0.01467   0.00733  -0.0474  0.9356  0.0234  -2.7130   0.0000   0.0000   0.0000   0.0425
  -4.100  -0.2238   0.01420   0.00678  -0.0473  0.9326  0.0258  -2.6619   0.0000   0.0000   0.0000   0.0323
  -4.000  -0.2117   0.01388   0.00644  -0.0474  0.9300  0.0293  -2.6046   0.0000   0.0000   0.0000   0.0196
  -3.900  -0.1991   0.01370   0.00625  -0.0477  0.9277  0.0348  -2.5236   0.0000   0.0000   0.0000   0.0041
  -3.800  -0.1909   0.01293   0.00564  -0.0470  0.9247  0.0671  -2.5508   0.0000   0.0000   0.0000  -0.0029
  -3.700  -0.1853   0.01244   0.00540  -0.0461  0.9196  0.1198  -2.5134   0.0000   0.0000   0.0000  -0.0053
  -3.600  -0.1771   0.01210   0.00525  -0.0457  0.9155  0.1596  -2.4299   0.0000   0.0000   0.0000  -0.0146
  -3.500  -0.1683   0.01176   0.00511  -0.0454  0.9118  0.2079  -2.3378   0.0000   0.0000   0.0000  -0.0263
  -3.400  -0.1592   0.01143   0.00497  -0.0451  0.9086  0.2560  -2.2419   0.0000   0.0000   0.0000  -0.0400
  -3.300  -0.1511   0.01103   0.00484  -0.0446  0.9056  0.3235  -2.1494   0.0000   0.0000   0.0000  -0.0523
  -3.200  -0.1448   0.01054   0.00475  -0.0439  0.9028  0.4182  -2.0647   0.0000   0.0000   0.0000  -0.0599
  -3.100  -0.1408   0.01011   0.00473  -0.0426  0.8977  0.5106  -1.9916   0.0000   0.0000   0.0000  -0.0593
  -3.000  -0.1356   0.00978   0.00475  -0.0413  0.8934  0.5926  -1.9116   0.0000   0.0000   0.0000  -0.0614
  -2.900  -0.1282   0.00959   0.00477  -0.0403  0.8898  0.6496  -1.8216   0.0000   0.0000   0.0000  -0.0711
  -2.800  -0.1196   0.00948   0.00477  -0.0394  0.8867  0.6882  -1.7268   0.0000   0.0000   0.0000  -0.0870
  -2.700  -0.1104   0.00941   0.00475  -0.0387  0.8839  0.7191  -1.6306   0.0000   0.0000   0.0000  -0.1078
  -2.600  -0.1012   0.00937   0.00476  -0.0379  0.8813  0.7455  -1.5351   0.0000   0.0000   0.0000  -0.1321
  -2.500  -0.0924   0.00936   0.00478  -0.0371  0.8780  0.7680  -1.4432   0.0000   0.0000   0.0000  -0.1597
  -2.400  -0.0837   0.00937   0.00480  -0.0363  0.8738  0.7872  -1.3542   0.0000   0.0000   0.0000  -0.1926
  -2.300  -0.0746   0.00937   0.00482  -0.0356  0.8701  0.8026  -1.2641   0.0000   0.0000   0.0000  -0.2367
  -2.200  -0.0651   0.00937   0.00481  -0.0350  0.8667  0.8157  -1.1887   0.0000   0.0000   0.0000  -0.2971
  -2.100  -0.0557   0.00938   0.00477  -0.0343  0.8636  0.8291  -1.1165   0.0000   0.0000   0.0000  -0.3762
  -2.000  -0.0459   0.00939   0.00477  -0.0336  0.8609  0.8405  -1.0482   0.0000   0.0000   0.0000  -0.4936
  -1.900  -0.0367   0.00942   0.00476  -0.0328  0.8583  0.8528  -0.9828   0.0000   0.0000   0.0000  -0.6591
  -1.800  -0.0269   0.00946   0.00480  -0.0322  0.8551  0.8626  -0.9167   0.0000   0.0000   0.0000  -0.9653
  -1.700  -0.0178   0.00951   0.00483  -0.0315  0.8511  0.8730  -0.8541   0.0000   0.0000   0.0000  -1.5415
  -1.600  -0.0083   0.00954   0.00484  -0.0309  0.8473  0.8818  -0.7910   0.0000   0.0000   0.0000  -3.5458
  -1.500   0.0026   0.00958   0.00485  -0.0304  0.8441  0.8893  -0.7247   0.0000   0.0000   0.0000  12.0199
  -1.400   0.0121   0.00960   0.00484  -0.0298  0.8410  0.8982  -0.6641   0.0000   0.0000   0.0000   2.7525
  -1.300   0.0232   0.00963   0.00483  -0.0294  0.8383  0.9049  -0.5997   0.0000   0.0000   0.0000   1.5356
  -1.200   0.0362   0.00967   0.00483  -0.0294  0.8359  0.9109  -0.5310   0.0000   0.0000   0.0000   1.0704
  -1.100   0.0480   0.00973   0.00486  -0.0293  0.8331  0.9180  -0.4676   0.0000   0.0000   0.0000   0.8648
  -1.000   0.0574   0.00978   0.00488  -0.0288  0.8290  0.9256  -0.4413   0.0000   0.0000   0.0000   0.7547
  -0.900   0.0745   0.00982   0.00490  -0.0297  0.8257  0.9298  -0.4054   0.0000   0.0000   0.0000   0.6512
  -0.800   0.0916   0.00987   0.00491  -0.0307  0.8226  0.9343  -0.4031   0.0000   0.0000   0.0000   0.5866
  -0.700   0.1072   0.00990   0.00487  -0.0313  0.8196  0.9392  -0.4128   0.0000   0.0000   0.0000   0.5435
  -0.600   0.1192   0.00993   0.00486  -0.0313  0.8166  0.9453  -0.4213   0.0000   0.0000   0.0000   0.5133
  -0.500   0.1364   0.00995   0.00483  -0.0323  0.8141  0.9491  -0.4324   0.0000   0.0000   0.0000   0.4874
  -0.400   0.1582   0.00998   0.00480  -0.0343  0.8118  0.9514  -0.4459   0.0000   0.0000   0.0000   0.4670
  -0.300   0.1797   0.01000   0.00480  -0.0364  0.8085  0.9539  -0.4597   0.0000   0.0000   0.0000   0.4523
  -0.200   0.1994   0.01001   0.00479  -0.0381  0.8048  0.9568  -0.4727   0.0000   0.0000   0.0000   0.4408
  -0.100   0.2172   0.01002   0.00477  -0.0394  0.8011  0.9602  -0.4850   0.0000   0.0000   0.0000   0.4310
   0.000   0.2329   0.01002   0.00474  -0.0403  0.7975  0.9641  -0.4968   0.0000   0.0000   0.0000   0.4224
   0.100   0.2453   0.01003   0.00472  -0.0405  0.7941  0.9685  -0.5070   0.0000   0.0000   0.0000   0.4142
   0.200   0.2626   0.01000   0.00464  -0.0417  0.7911  0.9709  -0.5201   0.0000   0.0000   0.0000   0.4078
   0.300   0.2815   0.00997   0.00458  -0.0433  0.7880  0.9728  -0.5348   0.0000   0.0000   0.0000   0.4026
   0.400   0.2999   0.00995   0.00455  -0.0449  0.7837  0.9752  -0.5490   0.0000   0.0000   0.0000   0.3984
   0.500   0.3173   0.00992   0.00450  -0.0462  0.7795  0.9778  -0.5635   0.0000   0.0000   0.0000   0.3944
   0.600   0.3338   0.00988   0.00445  -0.0474  0.7754  0.9806  -0.5780   0.0000   0.0000   0.0000   0.3906
   0.700   0.3495   0.00985   0.00438  -0.0483  0.7717  0.9835  -0.5921   0.0000   0.0000   0.0000   0.3869
   0.800   0.3645   0.00983   0.00432  -0.0491  0.7683  0.9864  -0.6067   0.0000   0.0000   0.0000   0.3833
   0.900   0.3787   0.00983   0.00429  -0.0498  0.7647  0.9891  -0.6212   0.0000   0.0000   0.0000   0.3799
   1.000   0.3948   0.00979   0.00425  -0.0510  0.7601  0.9914  -0.6368   0.0000   0.0000   0.0000   0.3774
   1.100   0.4115   0.00973   0.00418  -0.0522  0.7555  0.9936  -0.6541   0.0000   0.0000   0.0000   0.3752
   1.200   0.4277   0.00967   0.00410  -0.0534  0.7512  0.9960  -0.6715   0.0000   0.0000   0.0000   0.3729
   1.300   0.4435   0.00961   0.00402  -0.0544  0.7473  0.9983  -0.6889   0.0000   0.0000   0.0000   0.3707
   1.400   0.4579   0.00959   0.00395  -0.0551  0.7436  1.0000  -0.7055   0.0000   0.0000   0.0000   0.3684
   1.500   0.4659   0.00957   0.00395  -0.0547  0.7390  1.0000  -0.7186   0.0000   0.0000   0.0000   0.3652
   1.600   0.4740   0.00956   0.00394  -0.0542  0.7342  1.0000  -0.7319   0.0000   0.0000   0.0000   0.3622
   1.700   0.4820   0.00954   0.00393  -0.0537  0.7295  1.0000  -0.7452   0.0000   0.0000   0.0000   0.3591
   1.800   0.4901   0.00952   0.00389  -0.0531  0.7253  1.0000  -0.7587   0.0000   0.0000   0.0000   0.3561
   1.900   0.4983   0.00952   0.00385  -0.0526  0.7215  1.0000  -0.7724   0.0000   0.0000   0.0000   0.3531
   2.000   0.5065   0.00952   0.00384  -0.0521  0.7170  1.0000  -0.7863   0.0000   0.0000   0.0000   0.3504
   2.100   0.5147   0.00951   0.00385  -0.0516  0.7119  1.0000  -0.8018   0.0000   0.0000   0.0000   0.3478
   2.200   0.5228   0.00950   0.00383  -0.0511  0.7071  1.0000  -0.8175   0.0000   0.0000   0.0000   0.3451
   2.300   0.5311   0.00949   0.00380  -0.0506  0.7026  1.0000  -0.8334   0.0000   0.0000   0.0000   0.3425
   2.400   0.5395   0.00950   0.00376  -0.0501  0.6986  1.0000  -0.8495   0.0000   0.0000   0.0000   0.3400
   2.500   0.5478   0.00951   0.00378  -0.0496  0.6937  1.0000  -0.8654   0.0000   0.0000   0.0000   0.3376
   2.600   0.5560   0.00950   0.00379  -0.0491  0.6883  1.0000  -0.8813   0.0000   0.0000   0.0000   0.3353
   2.700   0.5643   0.00950   0.00379  -0.0486  0.6833  1.0000  -0.8974   0.0000   0.0000   0.0000   0.3330
   2.800   0.5727   0.00951   0.00377  -0.0480  0.6786  1.0000  -0.9143   0.0000   0.0000   0.0000   0.3307
   2.900   0.5812   0.00954   0.00375  -0.0475  0.6742  1.0000  -0.9338   0.0000   0.0000   0.0000   0.3285
   3.000   0.5894   0.00955   0.00379  -0.0470  0.6685  1.0000  -0.9527   0.0000   0.0000   0.0000   0.3265
   3.100   0.5977   0.00955   0.00381  -0.0465  0.6630  1.0000  -0.9757   0.0000   0.0000   0.0000   0.3244
   3.200   0.6061   0.00957   0.00381  -0.0459  0.6578  1.0000  -0.9992   0.0000   0.0000   0.0000   0.3224
   3.300   0.6146   0.00960   0.00380  -0.0454  0.6530  1.0000  -1.0231   0.0000   0.0000   0.0000   0.3204
   3.400   0.6230   0.00962   0.00384  -0.0449  0.6473  1.0000  -1.0467   0.0000   0.0000   0.0000   0.3185
   3.500   0.6313   0.00964   0.00394  -0.0444  0.6412  1.0000  -1.0704   0.0000   0.0000   0.0000   0.3167
   3.600   0.6397   0.00966   0.00395  -0.0439  0.6354  1.0000  -1.0944   0.0000   0.0000   0.0000   0.3148
   3.700   0.6483   0.00970   0.00395  -0.0433  0.6302  1.0000  -1.1189   0.0000   0.0000   0.0000   0.3130
   3.800   0.6567   0.00973   0.00400  -0.0428  0.6240  1.0000  -1.1430   0.0000   0.0000   0.0000   0.3113
   3.900   0.6651   0.00975   0.00405  -0.0423  0.6173  1.0000  -1.1673   0.0000   0.0000   0.0000   0.3096
   4.000   0.6736   0.00979   0.00406  -0.0418  0.6111  1.0000  -1.2154   0.0000   0.0000   0.0000   0.3079
   4.100   0.6822   0.00984   0.00408  -0.0412  0.6052  1.0000  -1.2646   0.0000   0.0000   0.0000   0.3063
   4.200   0.6906   0.00986   0.00415  -0.0407  0.5976  1.0000  -1.3136   0.0000   0.0000   0.0000   0.3048
   4.300   0.6991   0.00990   0.00418  -0.0402  0.5903  1.0000  -1.3635   0.0000   0.0000   0.0000   0.3032
   4.400   0.7077   0.00996   0.00419  -0.0397  0.5839  1.0000  -1.4143   0.0000   0.0000   0.0000   0.3016
   4.500   0.7162   0.01000   0.00427  -0.0392  0.5761  1.0000  -1.4653   0.0000   0.0000   0.0000   0.3002
   4.600   0.7248   0.01004   0.00432  -0.0387  0.5682  1.0000  -1.5168   0.0000   0.0000   0.0000   0.2988
   4.800   0.7418   0.01015   0.00442  -0.0377  0.5512  1.0000  -1.6259   0.0000   0.0000   0.0000   0.2960
   4.900   0.7501   0.01021   0.00446  -0.0371  0.5417  1.0000  -1.6896   0.0000   0.0000   0.0000   0.2946
   5.000   0.7585   0.01028   0.00452  -0.0366  0.5317  1.0000  -1.7542   0.0000   0.0000   0.0000   0.2933
   5.100   0.7668   0.01035   0.00457  -0.0360  0.5206  1.0000  -1.8190   0.0000   0.0000   0.0000   0.2919
   5.200   0.7751   0.01043   0.00468  -0.0355  0.5093  1.0000  -1.8784   0.0000   0.0000   0.0000   0.2906
   5.300   0.7829   0.01053   0.00473  -0.0348  0.4953  1.0000  -1.9423   0.0000   0.0000   0.0000   0.2892
   5.400   0.7907   0.01063   0.00480  -0.0342  0.4793  1.0000  -2.0072   0.0000   0.0000   0.0000   0.2879
   5.500   0.7982   0.01076   0.00486  -0.0335  0.4621  1.0000  -2.0718   0.0000   0.0000   0.0000   0.2866
   5.600   0.8054   0.01093   0.00494  -0.0328  0.4437  1.0000  -2.1360   0.0000   0.0000   0.0000   0.2852
   5.700   0.8123   0.01111   0.00503  -0.0321  0.4241  1.0000  -2.2000   0.0000   0.0000   0.0000   0.2839
   5.800   0.8193   0.01131   0.00514  -0.0314  0.4037  1.0000  -2.2648   0.0000   0.0000   0.0000   0.2826
   5.900   0.8265   0.01151   0.00527  -0.0307  0.3835  1.0000  -2.3303   0.0000   0.0000   0.0000   0.2813
   6.000   0.8338   0.01172   0.00541  -0.0301  0.3651  1.0000  -2.3967   0.0000   0.0000   0.0000   0.2802
   6.100   0.8410   0.01194   0.00556  -0.0295  0.3479  1.0000  -2.4634   0.0000   0.0000   0.0000   0.2790
   6.200   0.8481   0.01218   0.00572  -0.0289  0.3308  1.0000  -2.5299   0.0000   0.0000   0.0000   0.2779
   6.300   0.8553   0.01242   0.00588  -0.0283  0.3137  1.0000  -2.5973   0.0000   0.0000   0.0000   0.2768
   6.400   0.8630   0.01263   0.00606  -0.0278  0.2980  1.0000  -2.6665   0.0000   0.0000   0.0000   0.2758
   6.500   0.8704   0.01287   0.00624  -0.0272  0.2836  1.0000  -2.7351   0.0000   0.0000   0.0000   0.2748
   6.600   0.8777   0.01312   0.00643  -0.0267  0.2687  1.0000  -2.8116   0.0000   0.0000   0.0000   0.2738
   6.700   0.8855   0.01334   0.00662  -0.0262  0.2545  1.0000  -2.8996   0.0000   0.0000   0.0000   0.2729
   6.800   0.8926   0.01361   0.00682  -0.0257  0.2396  1.0000  -2.9893   0.0000   0.0000   0.0000   0.2719
   6.900   0.8995   0.01390   0.00704  -0.0251  0.2234  1.0000  -3.0941   0.0000   0.0000   0.0000   0.2710
   7.000   0.9071   0.01414   0.00724  -0.0246  0.2088  1.0000  -3.2035   0.0000   0.0000   0.0000   0.2701
   7.100   0.9141   0.01443   0.00747  -0.0240  0.1953  1.0000  -3.3104   0.0000   0.0000   0.0000   0.2692
   7.200   0.9212   0.01472   0.00770  -0.0235  0.1806  1.0000  -3.4184   0.0000   0.0000   0.0000   0.2683
   7.300   0.9283   0.01500   0.00800  -0.0230  0.1657  1.0000  -3.5362   0.0000   0.0000   0.0000   0.2674
   7.400   0.9348   0.01534   0.00826  -0.0224  0.1500  1.0000  -3.6433   0.0000   0.0000   0.0000   0.2665
   7.500   0.9407   0.01572   0.00854  -0.0217  0.1321  1.0000  -3.7463   0.0000   0.0000   0.0000   0.2655
   7.600   0.9461   0.01615   0.00885  -0.0210  0.1114  1.0000  -3.8447   0.0000   0.0000   0.0000   0.2645
   7.700   0.9507   0.01667   0.00922  -0.0201  0.0868  1.0000  -3.9332   0.0000   0.0000   0.0000   0.2634
   7.800   0.9536   0.01734   0.00971  -0.0190  0.0635  1.0000  -4.0031   0.0000   0.0000   0.0000   0.2620
   7.900   0.9558   0.01807   0.01032  -0.0177  0.0505  1.0000  -4.0577   0.0000   0.0000   0.0000   0.2605
   8.000   0.9619   0.01844   0.01074  -0.0169  0.0464  1.0000  -4.1495   0.0000   0.0000   0.0000   0.2595
   8.100   0.9675   0.01884   0.01117  -0.0161  0.0433  1.0000  -4.2407   0.0000   0.0000   0.0000   0.2584
   8.200   0.9726   0.01928   0.01160  -0.0153  0.0407  1.0000  -4.3297   0.0000   0.0000   0.0000   0.2573
   8.300   0.9769   0.01977   0.01211  -0.0143  0.0385  1.0000  -4.4101   0.0000   0.0000   0.0000   0.2561
   8.400   0.9799   0.02035   0.01273  -0.0131  0.0367  1.0000  -4.4769   0.0000   0.0000   0.0000   0.2548
   8.500   0.9815   0.02105   0.01349  -0.0117  0.0351  1.0000  -4.5291   0.0000   0.0000   0.0000   0.2532
   8.600   0.9822   0.02190   0.01441  -0.0102  0.0339  1.0000  -4.5684   0.0000   0.0000   0.0000   0.2516
   8.700   0.9879   0.02229   0.01482  -0.0095  0.0335  1.0000  -4.6629   0.0000   0.0000   0.0000   0.2506
   8.800   0.9936   0.02269   0.01528  -0.0087  0.0331  1.0000  -4.7560   0.0000   0.0000   0.0000   0.2497
   8.900   0.9988   0.02313   0.01576  -0.0078  0.0326  1.0000  -4.8445   0.0000   0.0000   0.0000   0.2486
   9.000   1.0037   0.02360   0.01628  -0.0069  0.0321  1.0000  -4.9292   0.0000   0.0000   0.0000   0.2476
   9.100   1.0085   0.02410   0.01684  -0.0060  0.0316  1.0000  -5.0117   0.0000   0.0000   0.0000   0.2465
   9.200   1.0134   0.02465   0.01744  -0.0052  0.0311  1.0000  -5.0930   0.0000   0.0000   0.0000   0.2455
   9.300   1.0187   0.02523   0.01807  -0.0043  0.0307  1.0000  -5.1743   0.0000   0.0000   0.0000   0.2446
   9.400   1.0241   0.02578   0.01868  -0.0036  0.0301  1.0000  -5.2602   0.0000   0.0000   0.0000   0.2437
   9.500   1.0295   0.02628   0.01923  -0.0028  0.0294  1.0000  -5.3510   0.0000   0.0000   0.0000   0.2428
   9.600   1.0346   0.02674   0.01973  -0.0021  0.0285  1.0000  -5.4452   0.0000   0.0000   0.0000   0.2419
   9.700   1.0394   0.02716   0.02019  -0.0013  0.0276  1.0000  -5.5416   0.0000   0.0000   0.0000   0.2411
   9.800   1.0440   0.02760   0.02067  -0.0005  0.0267  1.0000  -5.6369   0.0000   0.0000   0.0000   0.2402
   9.900   1.0488   0.02815   0.02128   0.0002  0.0261  1.0000  -5.7244   0.0000   0.0000   0.0000   0.2394
  10.000   1.0538   0.02878   0.02195   0.0009  0.0256  1.0000  -5.8072   0.0000   0.0000   0.0000   0.2386
  10.100   1.0587   0.02942   0.02264   0.0016  0.0251  1.0000  -5.8883   0.0000   0.0000   0.0000   0.2378
  10.200   1.0633   0.03009   0.02336   0.0023  0.0245  1.0000  -5.9665   0.0000   0.0000   0.0000   0.2370
  10.300   1.0675   0.03079   0.02412   0.0030  0.0240  1.0000  -6.0405   0.0000   0.0000   0.0000   0.2362
  10.400   1.0712   0.03153   0.02490   0.0037  0.0233  1.0000  -6.1121   0.0000   0.0000   0.0000   0.2354
  10.500   1.0743   0.03243   0.02586   0.0044  0.0225  1.0000  -6.1742   0.0000   0.0000   0.0000   0.2346
  10.600   1.0770   0.03402   0.02754   0.0051  0.0215  1.0000  -6.1980   0.0000   0.0000   0.0000   0.2339
  10.700   1.0755   0.03771   0.03154   0.0057  0.0202  1.0000  -6.0870   0.0000   0.0000   0.0000   0.2333
  10.800   1.0749   0.03832   0.03222   0.0068  0.0198  1.0000  -6.1342   0.0000   0.0000   0.0000   0.2321
  10.900   1.0773   0.03798   0.03197   0.0078  0.0193  1.0000  -6.2437   0.0000   0.0000   0.0000   0.2311
  11.000   1.0796   0.03810   0.03214   0.0086  0.0188  1.0000  -6.3330   0.0000   0.0000   0.0000   0.2302
  11.100   1.0814   0.03858   0.03268   0.0094  0.0183  1.0000  -6.4001   0.0000   0.0000   0.0000   0.2293
  11.200   1.0824   0.03940   0.03359   0.0102  0.0179  1.0000  -6.4374   0.0000   0.0000   0.0000   0.2285
  11.300   1.0827   0.04034   0.03461   0.0110  0.0176  1.0000  -6.4633   0.0000   0.0000   0.0000   0.2276
  11.400   1.0826   0.04132   0.03569   0.0117  0.0172  1.0000  -6.4838   0.0000   0.0000   0.0000   0.2267
  11.500   1.0818   0.04236   0.03682   0.0125  0.0169  1.0000  -6.4995   0.0000   0.0000   0.0000   0.2259
  11.600   1.0806   0.04343   0.03799   0.0132  0.0166  1.0000  -6.5111   0.0000   0.0000   0.0000   0.2251
  11.700   1.0789   0.04455   0.03920   0.0139  0.0164  1.0000  -6.5189   0.0000   0.0000   0.0000   0.2243
  11.800   1.0768   0.04571   0.04045   0.0145  0.0161  1.0000  -6.5234   0.0000   0.0000   0.0000   0.2235
  11.900   1.0742   0.04691   0.04175   0.0151  0.0159  1.0000  -6.5248   0.0000   0.0000   0.0000   0.2228
  12.000   1.0713   0.04816   0.04309   0.0156  0.0157  1.0000  -6.5234   0.0000   0.0000   0.0000   0.2221
  12.100   1.0679   0.04946   0.04447   0.0160  0.0155  1.0000  -6.5191   0.0000   0.0000   0.0000   0.2215
  12.200   1.0641   0.05081   0.04591   0.0164  0.0154  1.0000  -6.5120   0.0000   0.0000   0.0000   0.2210
  12.300   1.0600   0.05223   0.04741   0.0166  0.0152  1.0000  -6.5022   0.0000   0.0000   0.0000   0.2205
  12.400   1.0555   0.05371   0.04898   0.0168  0.0151  1.0000  -6.4893   0.0000   0.0000   0.0000   0.2201
  12.500   1.0507   0.05526   0.05062   0.0169  0.0150  1.0000  -6.4735   0.0000   0.0000   0.0000   0.2198
  12.600   1.0455   0.05688   0.05232   0.0169  0.0149  1.0000  -6.4543   0.0000   0.0000   0.0000   0.2196
  12.700   1.0398   0.05858   0.05411   0.0167  0.0149  1.0000  -6.4316   0.0000   0.0000   0.0000   0.2194
  12.800   1.0339   0.06038   0.05599   0.0165  0.0148  1.0000  -6.4054   0.0000   0.0000   0.0000   0.2194
  12.900   1.0276   0.06227   0.05796   0.0161  0.0148  1.0000  -6.3756   0.0000   0.0000   0.0000   0.2195
  13.000   1.0210   0.06426   0.06004   0.0156  0.0148  1.0000  -6.3421   0.0000   0.0000   0.0000   0.2197
  13.100   1.0140   0.06636   0.06222   0.0150  0.0148  1.0000  -6.3045   0.0000   0.0000   0.0000   0.2201
  13.200   1.0066   0.06856   0.06450   0.0142  0.0148  1.0000  -6.2631   0.0000   0.0000   0.0000   0.2206
  13.300   0.9989   0.07087   0.06690   0.0132  0.0148  1.0000  -6.2177   0.0000   0.0000   0.0000   0.2212
  13.400   0.9909   0.07333   0.06943   0.0121  0.0149  1.0000  -6.1681   0.0000   0.0000   0.0000   0.2221
  13.500   0.9826   0.07592   0.07210   0.0109  0.0150  1.0000  -6.1143   0.0000   0.0000   0.0000   0.2231
  13.600   0.9740   0.07866   0.07492   0.0094  0.0150  1.0000  -6.0559   0.0000   0.0000   0.0000   0.2243
  13.700   0.9652   0.08156   0.07789   0.0078  0.0151  1.0000  -5.9929   0.0000   0.0000   0.0000   0.2257
  13.800   0.9560   0.08464   0.08105   0.0060  0.0153  1.0000  -5.9247   0.0000   0.0000   0.0000   0.2274
  13.900   0.9466   0.08791   0.08439   0.0040  0.0154  1.0000  -5.8508   0.0000   0.0000   0.0000   0.2293
  14.000   0.9368   0.09139   0.08793   0.0018  0.0156  1.0000  -5.7705   0.0000   0.0000   0.0000   0.2315
  14.100   0.9268   0.09512   0.09173  -0.0006  0.0158  1.0000  -5.6826   0.0000   0.0000   0.0000   0.2339
  14.200   0.9164   0.09913   0.09580  -0.0032  0.0160  1.0000  -5.5854   0.0000   0.0000   0.0000   0.2367
  14.300   0.9056   0.10344   0.10018  -0.0061  0.0163  1.0000  -5.4769   0.0000   0.0000   0.0000   0.2398
  14.400   0.8943   0.10813   0.10491  -0.0091  0.0166  1.0000  -5.3536   0.0000   0.0000   0.0000   0.2432
  14.500   0.8822   0.11323   0.11006  -0.0124  0.0170  1.0000  -5.2108   0.0000   0.0000   0.0000   0.2471
  14.600   0.8693   0.11884   0.11563  -0.0158  0.0176  1.0000  -5.0431   0.0000   0.0000   0.0000   0.2513
  14.700   0.8561   0.12474   0.12156  -0.0193  0.0181  1.0000  -4.8459   0.0000   0.0000   0.0000   0.2557
  14.800   0.8429   0.13083   0.12765  -0.0226  0.0186  1.0000  -4.6223   0.0000   0.0000   0.0000   0.2601
  14.900   0.8306   0.13675   0.13357  -0.0256  0.0191  1.0000  -4.3888   0.0000   0.0000   0.0000   0.2642
  15.000   0.8199   0.14225   0.13905  -0.0282  0.0195  1.0000  -4.1625   0.0000   0.0000   0.0000   0.2678
  15.100   0.8100   0.14725   0.14406  -0.0302  0.0201  1.0000  -3.9369   0.0000   0.0000   0.0000   0.2707
  15.200   0.8090   0.15015   0.14695  -0.0315  0.0202  1.0000  -3.8655   0.0000   0.0000   0.0000   0.2723
  15.300   0.8083   0.15295   0.14975  -0.0327  0.0202  1.0000  -3.7958   0.0000   0.0000   0.0000   0.2738
  15.400   0.8080   0.15565   0.15244  -0.0339  0.0203  1.0000  -3.7294   0.0000   0.0000   0.0000   0.2753
  15.500   0.8080   0.15825   0.15504  -0.0350  0.0204  1.0000  -3.6663   0.0000   0.0000   0.0000   0.2766
  15.600   0.8084   0.16076   0.15755  -0.0362  0.0206  1.0000  -3.6060   0.0000   0.0000   0.0000   0.2779
  15.700   0.8091   0.16321   0.16000  -0.0372  0.0207  1.0000  -3.5463   0.0000   0.0000   0.0000   0.2791
  15.800   0.8102   0.16575   0.16253  -0.0383  0.0210  1.0000  -3.4760   0.0000   0.0000   0.0000   0.2804
  15.900   0.7875   0.18146   0.17815  -0.0420  0.0339  1.0000  -2.6129   0.0000   0.0000   0.0000   0.2871
  16.000   0.7887   0.18377   0.18046  -0.0430  0.0339  1.0000  -2.5709   0.0000   0.0000   0.0000   0.2882
  16.100   0.7899   0.18603   0.18272  -0.0439  0.0338  1.0000  -2.5311   0.0000   0.0000   0.0000   0.2893
  16.200   0.7913   0.18826   0.18494  -0.0449  0.0338  1.0000  -2.4930   0.0000   0.0000   0.0000   0.2903
  16.300   0.7927   0.19045   0.18713  -0.0459  0.0338  1.0000  -2.4566   0.0000   0.0000   0.0000   0.2913
  16.400   0.7942   0.19261   0.18928  -0.0469  0.0338  1.0000  -2.4222   0.0000   0.0000   0.0000   0.2923
  16.500   0.7958   0.19473   0.19140  -0.0478  0.0338  1.0000  -2.3895   0.0000   0.0000   0.0000   0.2933
  16.600   0.7975   0.19682   0.19348  -0.0488  0.0338  1.0000  -2.3587   0.0000   0.0000   0.0000   0.2943
  16.700   0.7993   0.19887   0.19553  -0.0497  0.0337  1.0000  -2.3294   0.0000   0.0000   0.0000   0.2953
  16.800   0.8011   0.20088   0.19754  -0.0507  0.0337  1.0000  -2.3017   0.0000   0.0000   0.0000   0.2962
  16.900   0.8030   0.20286   0.19951  -0.0516  0.0337  1.0000  -2.2753   0.0000   0.0000   0.0000   0.2971
  17.000   0.8050   0.20480   0.20145  -0.0526  0.0336  1.0000  -2.2503   0.0000   0.0000   0.0000   0.2980


