xflr5 v6.61

Plane name :        3d Wing analyses
Polar name :        T1-22.6 m/s-Panel-Inviscid
Freestream speed :  22.553 m/s


   alpha      Beta       CL          CDi        CDv        CD         CY         Cl         Cm         Cn        Cni       QInf        XCP
   -5.000     0.000  -0.246254   0.003780   0.000000   0.003780  -0.000000   0.000000   0.030929   0.000000   0.000000   22.5530     0.0193
   -4.500     0.000  -0.210475   0.002760   0.000000   0.002760  -0.000000   0.000000   0.022466   0.000000   0.000000   22.5530     0.0162
   -4.000     0.000  -0.174651   0.001899   0.000000   0.001899  -0.000000   0.000000   0.013983   0.000000   0.000000   22.5530     0.0119
   -3.500     0.000  -0.138788   0.001198   0.000000   0.001198  -0.000000   0.000000   0.005481   0.000000   0.000000   22.5530     0.0053
   -3.000     0.000  -0.102895   0.000657   0.000000   0.000657  -0.000000   0.000000  -0.003036   0.000000   0.000000   22.5530    -0.0059
   -2.500     0.000  -0.066977   0.000278   0.000000   0.000278  -0.000000   0.000000  -0.011567   0.000000   0.000000   22.5530    -0.0291
   -2.000     0.000  -0.031042   0.000059   0.000000   0.000059  -0.000000   0.000000  -0.020109   0.000000   0.000000   22.5530    -0.1062
   -1.500     0.000   0.004904   0.000003   0.000000   0.000003  -0.000000   0.000000  -0.028658   0.000000   0.000000   22.5530     0.9473
   -1.000     0.000   0.040853   0.000109   0.000000   0.000109  -0.000000   0.000000  -0.037213   0.000000   0.000000   22.5530     0.1467
   -0.500     0.000   0.076799   0.000376   0.000000   0.000376  -0.000000   0.000000  -0.045771  -0.000000  -0.000000   22.5530     0.0956
    0.000     0.000   0.112734   0.000805   0.000000   0.000805  -0.000000   0.000000  -0.054329  -0.000000  -0.000000   22.5530     0.0771
    0.500     0.000   0.148651   0.001396   0.000000   0.001396   0.000000   0.000000  -0.062884  -0.000000  -0.000000   22.5530     0.0675
    1.000     0.000   0.184544   0.002148   0.000000   0.002148   0.000000   0.000000  -0.071435  -0.000000  -0.000000   22.5530     0.0617
    1.500     0.000   0.220406   0.003062   0.000000   0.003062   0.000000   0.000000  -0.079978  -0.000000  -0.000000   22.5530     0.0577
    2.000     0.000   0.256229   0.004135   0.000000   0.004135   0.000000   0.000000  -0.088510  -0.000000  -0.000000   22.5530     0.0549
    2.500     0.000   0.292008   0.005368   0.000000   0.005368   0.000000   0.000000  -0.097030  -0.000000  -0.000000   22.5530     0.0527
    3.000     0.000   0.327733   0.006760   0.000000   0.006760   0.000000   0.000000  -0.105535  -0.000000  -0.000000   22.5530     0.0510
    3.500     0.000   0.363400   0.008309   0.000000   0.008309   0.000000  -0.000000  -0.114021  -0.000000  -0.000000   22.5530     0.0497
    4.000     0.000   0.399001   0.010015   0.000000   0.010015   0.000000  -0.000000  -0.122487  -0.000000  -0.000000   22.5530     0.0485
    4.500     0.000   0.434530   0.011877   0.000000   0.011877   0.000000  -0.000000  -0.130930   0.000000   0.000000   22.5530     0.0476
    5.000     0.000   0.469978   0.013893   0.000000   0.013893   0.000000  -0.000000  -0.139347   0.000000   0.000000   22.5530     0.0468
    5.500     0.000   0.505341   0.016062   0.000000   0.016062   0.000000  -0.000000  -0.147736   0.000000   0.000000   22.5530     0.0461
    6.000     0.000   0.540610   0.018382   0.000000   0.018382   0.000000  -0.000000  -0.156093   0.000000   0.000000   22.5530     0.0454
    6.500     0.000   0.575780   0.020852   0.000000   0.020852   0.000000  -0.000000  -0.164418   0.000000   0.000000   22.5530     0.0449
    7.000     0.000   0.610844   0.023470   0.000000   0.023470   0.000000  -0.000000  -0.172706   0.000000   0.000000   22.5530     0.0444
    7.500     0.000   0.645795   0.026233   0.000000   0.026233   0.000000  -0.000000  -0.180957   0.000000   0.000000   22.5530     0.0439
    8.000     0.000   0.680627   0.029141   0.000000   0.029141   0.000000  -0.000000  -0.189166   0.000000   0.000000   22.5530     0.0435
    8.500     0.000   0.715333   0.032190   0.000000   0.032190   0.000000  -0.000000  -0.197331   0.000000   0.000000   22.5530     0.0431
    9.000     0.000   0.749906   0.035380   0.000000   0.035380   0.000000  -0.000000  -0.205451   0.000000   0.000000   22.5530     0.0428
    9.500     0.000   0.784342   0.038706   0.000000   0.038706   0.000000  -0.000000  -0.213522   0.000000   0.000000   22.5530     0.0424
   10.000     0.000   0.818632   0.042168   0.000000   0.042168   0.000000  -0.000000  -0.221543   0.000000   0.000000   22.5530     0.0421
   10.500     0.000   0.852772   0.045761   0.000000   0.045761   0.000000  -0.000000  -0.229510   0.000000   0.000000   22.5530     0.0418
   11.000     0.000   0.886755   0.049485   0.000000   0.049485   0.000000  -0.000000  -0.237421   0.000000   0.000000   22.5530     0.0415
   11.500     0.000   0.920575   0.053335   0.000000   0.053335   0.000000  -0.000000  -0.245274   0.000000   0.000000   22.5530     0.0413
   12.000     0.000   0.954225   0.057310   0.000000   0.057310   0.000000  -0.000000  -0.253067   0.000000   0.000000   22.5530     0.0410
   12.500     0.000   0.987701   0.061406   0.000000   0.061406   0.000000  -0.000000  -0.260797   0.000000   0.000000   22.5530     0.0407
   13.000     0.000   1.020996   0.065620   0.000000   0.065620   0.000000  -0.000000  -0.268461   0.000000   0.000000   22.5530     0.0405
   13.500     0.000   1.054104   0.069949   0.000000   0.069949   0.000000  -0.000000  -0.276058   0.000000   0.000000   22.5530     0.0403
   14.000     0.000   1.087021   0.074390   0.000000   0.074390   0.000000  -0.000000  -0.283585   0.000000   0.000000   22.5530     0.0400
   14.500     0.000   1.119740   0.078940   0.000000   0.078940   0.000000  -0.000000  -0.291039   0.000000   0.000000   22.5530     0.0398
   15.000     0.000   1.152256   0.083595   0.000000   0.083595   0.000000  -0.000000  -0.298419   0.000000   0.000000   22.5530     0.0396
   15.500     0.000   1.184563   0.088351   0.000000   0.088351   0.000000  -0.000000  -0.305723   0.000000   0.000000   22.5530     0.0393
   16.000     0.000   1.216657   0.093206   0.000000   0.093206   0.000000  -0.000000  -0.312947   0.000000   0.000000   22.5530     0.0391
   16.500     0.000   1.248532   0.098155   0.000000   0.098155   0.000000  -0.000000  -0.320090   0.000000   0.000000   22.5530     0.0389
   17.000     0.000   1.280183   0.103194   0.000000   0.103194   0.000000  -0.000000  -0.327150   0.000000   0.000000   22.5530     0.0387


